[Format]      =  4.0
[Frequency]   =  1
[Precision]   =  1e-008
[MinAngle]    =  30
[DoSmartMesh] =  1
[Depth]       =  1
[LengthUnits] =  meters
[ProblemType] =  planar
[Coordinates] =  cartesian
[ACSolver]    =  0
[PrevType]    =  0
[PrevSoln]    =  ""
[Comment]     =  "Add comments here."
[PointProps]   = 0
[BdryProps]   = 1
  <BeginBdry>
    <BdryName> = "A=0"
    <BdryType> = 0
    <A_0> = 0
    <A_1> = 0
    <A_2> = 0
    <Phi> = 0
    <c0> = 0
    <c0i> = 0
    <c1> = 0
    <c1i> = 0
    <Mu_ssd> = 0
    <Sigma_ssd> = 0
    <innerangle> = 0
    <outerangle> = 0
  <EndBdry>
[BlockProps]  = 5
  <BeginBlock>
    <BlockName> = "u1"
    <Mu_x> = 5.1493969850724302
    <Mu_y> = 5.1493969850724302
    <H_c> = 0
    <H_cAngle> = 0
    <J_re> = 0
    <J_im> = 0
    <Sigma> = 0
    <d_lam> = 0
    <Phi_h> = 0
    <Phi_hx> = 0
    <Phi_hy> = 0
    <LamType> = 0
    <LamFill> = 1
    <NStrands> = 0
    <WireD> = 0
    <BHPoints> = 0
  <EndBlock>
  <BeginBlock>
    <BlockName> = "u2"
    <Mu_x> = 0.053268993904189134
    <Mu_y> = 0.053268993904189134
    <H_c> = 0
    <H_cAngle> = 0
    <J_re> = 0
    <J_im> = 0
    <Sigma> = 0
    <d_lam> = 0
    <Phi_h> = 0
    <Phi_hx> = 0
    <Phi_hy> = 0
    <LamType> = 0
    <LamFill> = 1
    <NStrands> = 0
    <WireD> = 0
    <BHPoints> = 0
  <EndBlock>
  <BeginBlock>
    <BlockName> = "u3"
    <Mu_x> = 54.106364684835192
    <Mu_y> = 54.106364684835192
    <H_c> = 0
    <H_cAngle> = 0
    <J_re> = 0
    <J_im> = 0
    <Sigma> = 0
    <d_lam> = 0
    <Phi_h> = 0
    <Phi_hx> = 0
    <Phi_hy> = 0
    <LamType> = 0
    <LamFill> = 1
    <NStrands> = 0
    <WireD> = 0
    <BHPoints> = 0
  <EndBlock>
  <BeginBlock>
    <BlockName> = "copper"
    <Mu_x> = 1
    <Mu_y> = 1
    <H_c> = 0
    <H_cAngle> = 0
    <J_re> = 0
    <J_im> = 0
    <Sigma> = 59
    <d_lam> = 0
    <Phi_h> = 0
    <Phi_hx> = 0
    <Phi_hy> = 0
    <LamType> = 0
    <LamFill> = 1
    <NStrands> = 1
    <WireD> = 0
    <BHPoints> = 0
  <EndBlock>
  <BeginBlock>
    <BlockName> = "air"
    <Mu_x> = 1
    <Mu_y> = 1
    <H_c> = 0
    <H_cAngle> = 0
    <J_re> = 0
    <J_im> = 0
    <Sigma> = 0
    <d_lam> = 0
    <Phi_h> = 0
    <Phi_hx> = 0
    <Phi_hy> = 0
    <LamType> = 0
    <LamFill> = 1
    <NStrands> = 1
    <WireD> = 0
    <BHPoints> = 0
  <EndBlock>
[CircuitProps]  = 1
  <BeginCircuit>
    <CircuitName> = "loop"
    <TotalAmps_re> = 1
    <TotalAmps_im> = 0
    <CircuitType> = 1
  <EndCircuit>
[NumPoints] = 28
0	0.01	0	0
0	-0.01	0	0
0	-0.010333333333333333	0	0
0	0.010333333333333333	0	0
0	-0.010666666666666668	0	0
0	0.010666666666666668	0	0
0	-0.010999999999999999	0	0
0	0.010999999999999999	0	0
-0.0025000000000000001	0.0022499999999999998	0	0
0.0025000000000000001	0.0022499999999999998	0	0
-0.0025000000000000001	-0.0022499999999999998	0	0
0.0025000000000000001	-0.0022499999999999998	0	0
-0.0025999999999999999	0.0022500000000000003	0	0
0.0025999999999999999	0.0022500000000000003	0	0
-0.0025999999999999999	-0.0022500000000000003	0	0
0.0025999999999999999	-0.0022500000000000003	0	0
-0.00028499999999999999	0.0022499999999999998	0	0
0.00028499999999999999	0.0022499999999999998	0	0
-0.00028499999999999999	-0.0022499999999999998	0	0
0.00028499999999999999	-0.0022499999999999998	0	0
-0.00115	0.0022499999999999998	0	0
0.00115	0.0022499999999999998	0	0
-0.00115	-0.0022499999999999998	0	0
0.00115	-0.0022499999999999998	0	0
-0.00125	0.0022499999999999998	0	0
0.00125	0.0022499999999999998	0	0
-0.00125	-0.0022499999999999998	0	0
0.00125	-0.0022499999999999998	0	0
[NumSegments] = 4
8	10	-1	0	0	0
9	11	-1	0	0	0
12	14	-1	0	0	0
13	15	-1	0	0	0
[NumArcSegments] = 24
0	1	180	1	0	0	0	1
1	0	180	1	0	0	0	1
2	3	180	1	0	0	0	1
3	2	180	1	0	0	0	1
4	5	180	1	0	0	0	1
5	4	180	1	0	0	0	1
6	7	180	1	1	0	0	1
7	6	180	1	1	0	0	1
9	8	180	1	0	0	0	1
10	11	180	1	0	0	0	1
13	12	180	1	0	0	0	1
14	15	180	1	0	0	0	1
16	17	180	1	0	0	0	1
17	16	180	1	0	0	0	1
18	19	180	1	0	0	0	1
19	18	180	1	0	0	0	1
20	21	180	1	0	0	0	1
21	20	180	1	0	0	0	1
22	23	180	1	0	0	0	1
23	22	180	1	0	0	0	1
24	25	180	1	0	0	0	1
25	24	180	1	0	0	0	1
26	27	180	1	0	0	0	1
27	26	180	1	0	0	0	1
[NumHoles] = 0
[NumBlockLabels] = 12
0.0093927752471980805	0.0038906148957117458	1	-1	0	0	0	1	0
0.0074246212024587496	0.0074246212024587487	2	-1	0	0	0	1	0
0.0041457371839551393	0.010008694935538938	3	-1	0	0	0	1	0
0.0025500000000000002	0	4	-1	0	0	0	1	0
0	0.0022499999999999998	4	-1	1	0	0	1	0
0	-0.0022499999999999998	4	-1	0	0	0	1	0
0.0011999999999999999	0.0022499999999999998	4	-1	0	0	0	1	0
0.0011999999999999999	-0.0022499999999999998	4	-1	1	0	0	-1	0
0	0.0094999999999999998	5	-1	0	0	0	1	0
0	0	5	-1	0	0	0	1	0
0	0.0016749999999999998	5	-1	0	0	0	1	0
0	-0.0016749999999999998	5	-1	0	0	0	1	0
