Version 4
SHEET 1 4400 2632
WIRE 192 -1872 176 -1872
WIRE 512 -1872 448 -1872
WIRE -896 -1856 -992 -1856
WIRE -544 -1856 -672 -1856
WIRE -80 -1856 -160 -1856
WIRE 192 -1856 176 -1856
WIRE 512 -1856 448 -1856
WIRE 976 -1856 768 -1856
WIRE 1264 -1856 1200 -1856
WIRE -992 -1824 -992 -1856
WIRE -544 -1808 -672 -1808
WIRE -80 -1808 -160 -1808
WIRE 192 -1808 176 -1808
WIRE 512 -1808 448 -1808
WIRE 976 -1808 768 -1808
WIRE 1264 -1808 1200 -1808
WIRE 192 -1792 176 -1792
WIRE 480 -1792 448 -1792
WIRE 512 -1792 480 -1792
WIRE 1248 -1760 1200 -1760
WIRE 1456 -1760 1440 -1760
WIRE 480 -1744 480 -1792
WIRE 768 -1744 480 -1744
WIRE 960 -1744 976 -1760
WIRE 176 -1728 176 -1776
WIRE 176 -1728 144 -1728
WIRE 320 -1728 176 -1728
WIRE 512 -1728 512 -1776
WIRE 512 -1728 320 -1728
WIRE -992 -1712 -992 -1744
WIRE -896 -1712 -896 -1808
WIRE -896 -1712 -992 -1712
WIRE 320 -1712 320 -1728
WIRE -992 -1696 -992 -1712
WIRE 768 -1696 480 -1696
WIRE 976 -1680 960 -1696
WIRE 1248 -1680 1200 -1680
WIRE 1456 -1680 1440 -1680
WIRE 176 -1664 176 -1728
WIRE 512 -1664 512 -1728
WIRE 192 -1648 176 -1648
WIRE 480 -1648 480 -1696
WIRE 480 -1648 448 -1648
WIRE 512 -1648 480 -1648
WIRE -544 -1632 -752 -1632
WIRE -80 -1632 -160 -1632
WIRE 192 -1632 176 -1632
WIRE 512 -1632 448 -1632
WIRE 976 -1632 768 -1632
WIRE 1264 -1632 1200 -1632
WIRE -544 -1584 -704 -1584
WIRE -80 -1584 -160 -1584
WIRE 192 -1584 176 -1584
WIRE 512 -1584 448 -1584
WIRE 976 -1584 768 -1584
WIRE 1264 -1584 1200 -1584
WIRE 192 -1568 176 -1568
WIRE 512 -1568 448 -1568
WIRE -416 -1504 -416 -1520
WIRE -288 -1504 -288 -1520
WIRE -288 -1504 -416 -1504
WIRE -992 -1488 -992 -1504
WIRE -752 -1488 -752 -1632
WIRE -704 -1488 -704 -1584
WIRE -704 -1136 -704 -1264
WIRE -544 -1136 -704 -1136
WIRE 208 -1136 -160 -1136
WIRE 976 -1136 432 -1136
WIRE 1264 -1136 1200 -1136
WIRE -752 -1088 -752 -1264
WIRE -544 -1088 -752 -1088
WIRE 208 -1088 -160 -1088
WIRE 976 -1088 432 -1088
WIRE 1264 -1088 1200 -1088
WIRE 1232 -1040 1200 -1040
WIRE 1440 -1040 1424 -1040
WIRE -752 -896 -752 -1088
WIRE 224 -896 -752 -896
WIRE 976 -896 976 -1040
WIRE 976 -896 416 -896
FLAG 1440 -1040 0
FLAG -992 -1488 0
FLAG 1264 -1088 U1_adc_low
FLAG 1264 -1136 U1_adc_high
FLAG 1264 -1632 U2_adc_low
FLAG 1456 -1760 0
FLAG 1264 -1856 U3_adc_high
FLAG 1264 -1584 U2_adc_high
FLAG 1456 -1680 0
FLAG 144 -1728 0
FLAG 1264 -1808 U3_adc_low
SYMBOL std_coax -448 -1088 R0
WINDOW 0 209 -190 Center 4
WINDOW 3 778 66 Center 2
WINDOW 123 765 96 Center 2
WINDOW 39 391 122 Center 2
SYMATTR InstName Z1
SYMATTR Value Rp={Rp1} Lp={Lp1} Rpg={Rp1r} Lpg={Lp1r} kp={kpo1} Cps={Cp1s} Rps={Rp1s}
SYMATTR Value2 Rc={Rc1} Lc={Lc1} Rcg={Rc1r} Lcg={Lc1r} kc={kco1} Ccs={Cc1s} Rcs={Rc1s}
SYMATTR SpiceLine Rs={R1} Ls={L1}
SYMBOL coax_cable -704 -1376 R90
WINDOW 0 0 65 Center 2
WINDOW 3 -44 224 VCenter 2
WINDOW 123 -15 238 VCenter 2
WINDOW 39 45 227 VCenter 2
WINDOW 40 17 240 VCenter 2
SYMATTR InstName coax_joint
SYMATTR Value Rs={Rc3h} Ls={Lc3h}
SYMATTR Value2 RsG={Rc3g} LsG={Lc3g}
SYMATTR SpiceLine k={kc3} Rch={Rc3ch}
SYMATTR SpiceLine2 Cp={Cc3sh} Rp={Rc3sh}
SYMBOL coax_cable -784 -1856 R0
WINDOW 0 0 65 Center 2
WINDOW 3 1 -145 Center 2
WINDOW 123 1 -118 Center 2
WINDOW 39 3 -65 Center 2
WINDOW 40 3 -92 Center 2
SYMATTR InstName coax_sup
SYMATTR Value Rs={Rc4h} Ls={Lc4h}
SYMATTR Value2 RsG={Rc4g} LsG={Lc4g}
SYMATTR SpiceLine k={kc4} Rch={Rc4ch}
SYMATTR SpiceLine2 Cp={Cc4sh} Rp={Rc4sh}
SYMBOL current -992 -1824 R0
WINDOW 0 -70 10 Left 2
WINDOW 3 -106 61 Left 2
WINDOW 123 -166 35 Left 2
SYMATTR InstName I1
SYMATTR Value {Idc}
SYMATTR Value2 AC {Iac} 0
SYMBOL coax_cable 320 -1136 R0
WINDOW 0 0 65 Center 2
WINDOW 3 1 -145 Center 2
WINDOW 123 1 -118 Center 2
WINDOW 39 3 -65 Center 2
WINDOW 40 3 -92 Center 2
SYMATTR InstName coax_Z1
SYMATTR Value Rs={Rc1h} Ls={Lc1h}
SYMATTR Value2 RsG={Rc1g} LsG={Lc1g}
SYMATTR SpiceLine k={kc1} Rch={Rc1ch}
SYMATTR SpiceLine2 Cp={Cc1sh} Rp={Rc1sh}
SYMBOL ground_lug 864 -1744 M180
SYMATTR InstName U2
SYMATTR Value Rs={Rgrd3}
SYMATTR Value2 Ls={Lgrd3}
SYMBOL ground_lug 1328 -1040 R0
WINDOW 0 -16 1 Left 2
WINDOW 3 6 54 Center 2
SYMATTR InstName U1
SYMATTR Value Rs={Rgnd1}
SYMATTR Value2 Ls={Lgnd1}
SYMBOL ground_lug -992 -1600 R90
WINDOW 3 5 56 Center 2
WINDOW 123 6 31 Center 2
SYMATTR Value Rs={Rsrc}
SYMATTR Value2 Ls={Lsrc}
SYMATTR InstName U5
SYMBOL std_4TP2 -256 -1808 M0
WINDOW 0 -11 89 Center 4
WINDOW 3 -36 -271 Center 2
WINDOW 123 -37 -237 Center 2
WINDOW 39 101 -202 Center 2
SYMATTR InstName Z2
SYMATTR Value Rp={Rp2} Lp={Lp2} Rpg={Rp2r} Lpg={Lp2r} kp={kpo2} Cps={Cp2s} Rps={Rp2s}
SYMATTR Value2 Rc={Rc2} Lc={Lc2} Rcg={Rc2r} Lcg={Lc2r} kc={kco2} Ccs={Cc2s} Rcs={Rc2s}
SYMATTR SpiceLine Rs={R2} Ls={L2}
SYMBOL ground_lug 1344 -1760 M180
WINDOW 3 220 17 Center 2
WINDOW 123 218 -6 Center 2
SYMATTR Value Rs={Rgnd3}
SYMATTR Value2 Ls={Lgnd3}
SYMATTR InstName U6
SYMBOL ground_lug 864 -1696 R0
SYMATTR InstName U3
SYMATTR Value Rs={Rgrd2}
SYMATTR Value2 Ls={Lgrd2}
SYMBOL ground_lug 1344 -1680 R0
WINDOW 3 220 9 Center 2
WINDOW 123 218 -14 Center 2
SYMATTR Value Rs={Rgnd2}
SYMATTR Value2 Ls={Lgnd2}
SYMATTR InstName U4
SYMBOL twax_cable 48 -1856 R180
WINDOW 0 -2 99 Center 2
WINDOW 3 -2 73 Center 2
WINDOW 123 2 91 Invisible 2
WINDOW 39 0 114 Invisible 2
SYMATTR InstName Hpot_A
SYMATTR Value <template=twax>
SYMATTR Value2 ""
SYMATTR SpiceLine ""
SYMBOL twax_cable 48 -1584 R0
WINDOW 0 2 97 Center 2
WINDOW 123 2 91 Invisible 2
WINDOW 39 0 114 Invisible 2
SYMATTR InstName Lpot_A
SYMATTR Value <template=twax>
SYMATTR Value2 ""
SYMATTR SpiceLine ""
SYMBOL dual_epbuf 320 -1808 R0
WINDOW 3 0 -134 Center 2
WINDOW 0 4 -160 Center 2
WINDOW 123 -5 -188 Invisible 2
WINDOW 39 -5 -167 Invisible 2
WINDOW 40 -5 -147 Invisible 2
SYMATTR Value <template=epbuf>
SYMATTR InstName buf_hpot
SYMATTR Value2 ""
SYMATTR SpiceLine ""
SYMATTR SpiceLine2 ""
SYMBOL dual_epbuf 320 -1632 R180
WINDOW 0 -1 -129 Center 2
WINDOW 3 1 -153 Center 2
WINDOW 123 -5 -188 Invisible 2
WINDOW 39 -5 -167 Invisible 2
WINDOW 40 -5 -147 Invisible 2
SYMATTR InstName buf_lpot
SYMATTR Value <template=epbuf>
SYMATTR Value2 ""
SYMATTR SpiceLine ""
SYMATTR SpiceLine2 ""
SYMBOL twax_cable 640 -1856 R180
WINDOW 39 0 115 Invisible 2
WINDOW 0 -2 94 Center 2
WINDOW 123 2 91 Invisible 2
SYMATTR SpiceLine ""
SYMATTR InstName Hpot_B
SYMATTR Value <template=twax>
SYMATTR Value2 ""
SYMBOL twax_cable 640 -1584 R0
WINDOW 0 2 97 Center 2
WINDOW 123 2 91 Invisible 2
WINDOW 39 0 114 Invisible 2
SYMATTR InstName Lpot_B
SYMATTR Value <template=twax>
SYMATTR Value2 ""
SYMATTR SpiceLine ""
SYMBOL digitizer_3458 1104 -1808 R0
SYMATTR InstName ADC3
SYMATTR Value Ci={C3in} Ri={R3in}
SYMATTR Value2 Clg={C3sh} Rlg={R3sh}
SYMATTR SpiceLine Cgs={C3gnd} Rgs={R3gnd}
SYMBOL digitizer_3458 1104 -1632 M180
SYMATTR InstName ADC2
SYMATTR Value Ci={C2in} Ri={R2in}
SYMATTR Value2 Clg={C2sh} Rlg={R2sh}
SYMATTR SpiceLine Cgs={C2gnd} Rgs={R2gnd}
SYMBOL digitizer_3458 1104 -1088 R0
SYMATTR InstName ADC1
SYMATTR Value Ci={C1in} Ri={R1in}
SYMATTR Value2 Clg={C1sh} Rlg={R1sh}
SYMATTR SpiceLine Cgs={C1gnd} Rgs={R1gnd}
SYMBOL ground_lug 320 -896 R0
SYMATTR InstName U13
SYMATTR Value Rs={Rgrd2}
SYMATTR Value2 Ls={Lgrd2}
TEXT -152 -2536 Left 2 ;<twax>\n  Rs={Rs%} Ls={Ls%} RsG={RsG%} LsG={LsG%} Mlg={Mlg%} Cp={Cp%} Rp={Rp%}\n  RsS={RsS%} LsS={LsS%} Mls={Mls%} Mgs={Mgs%} CpS={CpS%} RpS={RpS%}\n  Mll={Mll%} Mgg={Mgg%} Mlg2={Mlg2%} CpGG={CpGG%} RpGG={RpGG%}\n</twax>
TEXT -152 -2392 Left 2 ;<epbuf>\n  CgA={CgA_%} RgA={RgA_%} CgB={CgB_%} RgB={RgB_%}\n  LoA={LoA_%} RoA={RoA_%} LoB={LoB_%} RoB={RoB_%}\n</epbuf>
