Version 4
SHEET 1 4400 2632
WIRE 384 -1872 240 -1872
WIRE 768 -1872 640 -1872
WIRE -896 -1856 -992 -1856
WIRE -544 -1856 -672 -1856
WIRE -16 -1856 -160 -1856
WIRE 384 -1856 240 -1856
WIRE 768 -1856 640 -1856
WIRE 1232 -1856 1024 -1856
WIRE 1520 -1856 1456 -1856
WIRE -992 -1824 -992 -1856
WIRE -544 -1808 -672 -1808
WIRE -16 -1808 -160 -1808
WIRE 384 -1808 240 -1808
WIRE 768 -1808 640 -1808
WIRE 1232 -1808 1024 -1808
WIRE 1520 -1808 1456 -1808
WIRE 384 -1792 240 -1792
WIRE 688 -1792 640 -1792
WIRE 768 -1792 688 -1792
WIRE 1504 -1760 1456 -1760
WIRE 1712 -1760 1696 -1760
WIRE 688 -1744 688 -1792
WIRE 1024 -1744 688 -1744
WIRE 1216 -1744 1232 -1760
WIRE 240 -1728 240 -1776
WIRE 512 -1728 240 -1728
WIRE 640 -1728 512 -1728
WIRE -992 -1712 -992 -1744
WIRE -896 -1712 -896 -1808
WIRE -896 -1712 -992 -1712
WIRE 512 -1712 512 -1728
WIRE -992 -1696 -992 -1712
WIRE 1024 -1696 688 -1696
WIRE 1232 -1680 1216 -1696
WIRE 1504 -1680 1456 -1680
WIRE 1712 -1680 1696 -1680
WIRE 240 -1664 240 -1728
WIRE 384 -1648 240 -1648
WIRE 688 -1648 688 -1696
WIRE 688 -1648 640 -1648
WIRE 768 -1648 688 -1648
WIRE -544 -1632 -752 -1632
WIRE -16 -1632 -160 -1632
WIRE 384 -1632 240 -1632
WIRE 768 -1632 640 -1632
WIRE 1232 -1632 1024 -1632
WIRE 1520 -1632 1456 -1632
WIRE -544 -1584 -704 -1584
WIRE -16 -1584 -160 -1584
WIRE 384 -1584 240 -1584
WIRE 768 -1584 640 -1584
WIRE 1232 -1584 1024 -1584
WIRE 1520 -1584 1456 -1584
WIRE 384 -1568 240 -1568
WIRE 768 -1568 640 -1568
WIRE -416 -1504 -416 -1520
WIRE -288 -1504 -288 -1520
WIRE -288 -1504 -416 -1504
WIRE -992 -1488 -992 -1504
WIRE -752 -1488 -752 -1632
WIRE -704 -1488 -704 -1584
WIRE -704 -1136 -704 -1264
WIRE -544 -1136 -704 -1136
WIRE 400 -1136 -160 -1136
WIRE 1232 -1136 624 -1136
WIRE 1520 -1136 1456 -1136
WIRE -752 -1088 -752 -1264
WIRE -544 -1088 -752 -1088
WIRE 400 -1088 -160 -1088
WIRE 1232 -1088 624 -1088
WIRE 1520 -1088 1456 -1088
WIRE 1488 -1040 1456 -1040
WIRE 1696 -1040 1680 -1040
WIRE -752 -896 -752 -1088
WIRE 416 -896 -752 -896
WIRE 1232 -896 1232 -1040
WIRE 1232 -896 608 -896
FLAG 1696 -1040 0
FLAG -992 -1488 0
FLAG 1520 -1088 U1_adc_low
FLAG 1520 -1136 U1_adc_high
FLAG 1520 -1632 U2_adc_low
FLAG 1712 -1760 0
FLAG 1520 -1856 U3_adc_high
FLAG 1520 -1584 U2_adc_high
FLAG 1712 -1680 0
FLAG 640 -1728 0
FLAG 1520 -1808 U3_adc_low
SYMBOL std_coax -448 -1088 R0
WINDOW 0 209 -190 Center 4
WINDOW 3 386 -328 Center 2
WINDOW 123 376 -298 Center 2
WINDOW 39 97 -264 Center 2
SYMATTR InstName Z1
SYMATTR Value Rp={Rp1} Lp={Lp1} Rpg={Rp1r} Lpg={Lp1r} kp={kpo1} Cps={Cp1s} Rps={Rp1s}
SYMATTR Value2 Rc={Rc1} Lc={Lc1} Rcg={Rc1r} Lcg={Lc1r} kc={kco1} Ccs={Cc1s} Rcs={Rc1s}
SYMATTR SpiceLine Rs={R1} Ls={L1}
SYMBOL coax_cable -704 -1376 R90
WINDOW 0 0 65 Center 2
WINDOW 3 -44 224 VCenter 2
WINDOW 123 -15 238 VCenter 2
WINDOW 39 45 227 VCenter 2
WINDOW 40 17 240 VCenter 2
SYMATTR InstName coax_joint
SYMATTR Value Rs={Rc3h} Ls={Lc3h}
SYMATTR Value2 RsG={Rc3g} LsG={Lc3g}
SYMATTR SpiceLine k={kc3} Rch={Rc3ch}
SYMATTR SpiceLine2 Cp={Cc3sh} Rp={Rc3sh}
SYMBOL coax_cable -784 -1856 R0
WINDOW 0 0 65 Center 2
WINDOW 3 1 -145 Center 2
WINDOW 123 1 -118 Center 2
WINDOW 39 3 -65 Center 2
WINDOW 40 3 -92 Center 2
SYMATTR InstName coax_sup
SYMATTR Value Rs={Rc4h} Ls={Lc4h}
SYMATTR Value2 RsG={Rc4g} LsG={Lc4g}
SYMATTR SpiceLine k={kc4} Rch={Rc4ch}
SYMATTR SpiceLine2 Cp={Cc4sh} Rp={Rc4sh}
SYMBOL current -992 -1824 R0
WINDOW 0 -70 10 Left 2
WINDOW 3 -106 61 Left 2
WINDOW 123 -166 35 Left 2
SYMATTR InstName I1
SYMATTR Value {Idc}
SYMATTR Value2 AC {Iac} 0
SYMBOL coax_cable 512 -1136 R0
WINDOW 0 0 65 Center 2
WINDOW 3 1 -145 Center 2
WINDOW 123 1 -118 Center 2
WINDOW 39 3 -65 Center 2
WINDOW 40 3 -92 Center 2
SYMATTR InstName coax_Z1
SYMATTR Value Rs={Rc1h} Ls={Lc1h}
SYMATTR Value2 RsG={Rc1g} LsG={Lc1g}
SYMATTR SpiceLine k={kc1} Rch={Rc1ch}
SYMATTR SpiceLine2 Cp={Cc1sh} Rp={Rc1sh}
SYMBOL ground_lug 1120 -1744 M180
SYMATTR InstName U2
SYMATTR Value Rs={Rgrd3}
SYMATTR Value2 Ls={Lgrd3}
SYMBOL ground_lug 1584 -1040 R0
WINDOW 0 -16 1 Left 2
WINDOW 3 6 54 Center 2
SYMATTR InstName U1
SYMATTR Value Rs={Rgnd1}
SYMATTR Value2 Ls={Lgnd1}
SYMBOL ground_lug -992 -1600 R90
WINDOW 3 5 56 Center 2
WINDOW 123 6 31 Center 2
SYMATTR Value Rs={Rsrc}
SYMATTR Value2 Ls={Lsrc}
SYMATTR InstName U5
SYMBOL std_4TP2 -256 -1808 M0
WINDOW 0 -11 89 Center 4
WINDOW 3 -36 -271 Center 2
WINDOW 123 -37 -237 Center 2
WINDOW 39 101 -202 Center 2
SYMATTR InstName Z2
SYMATTR Value Rp={Rp2} Lp={Lp2} Rpg={Rp2r} Lpg={Lp2r} kp={kpo2} Cps={Cp2s} Rps={Rp2s}
SYMATTR Value2 Rc={Rc2} Lc={Lc2} Rcg={Rc2r} Lcg={Lc2r} kc={kco2} Ccs={Cc2s} Rcs={Rc2s}
SYMATTR SpiceLine Rs={R2} Ls={L2}
SYMBOL ground_lug 1600 -1760 M180
WINDOW 3 220 17 Center 2
WINDOW 123 218 -6 Center 2
SYMATTR Value Rs={Rgnd3}
SYMATTR Value2 Ls={Lgnd3}
SYMATTR InstName U6
SYMBOL ground_lug 1120 -1696 R0
SYMATTR InstName U3
SYMATTR Value Rs={Rgrd2}
SYMATTR Value2 Ls={Lgrd2}
SYMBOL ground_lug 1600 -1680 R0
WINDOW 3 220 9 Center 2
WINDOW 123 218 -14 Center 2
SYMATTR Value Rs={Rgnd2}
SYMATTR Value2 Ls={Lgnd2}
SYMATTR InstName U4
SYMBOL twax_cable 112 -1856 R180
WINDOW 40 21 143 Center 2
SYMATTR InstName U7
SYMATTR Value Rs={Rc5h} Ls={Lc5h} RsG={Rc5g} LsG={Lc5g} Mlg={Mc5lg} Cp={Cc5sh} Rp={Rc5sh}
SYMATTR SpiceLine2 <template=twax>
SYMBOL twax_cable 112 -1584 R0
SYMATTR InstName U8
SYMATTR Value Rs={Rp111} Ls=? RsG=? LsG=? Mlg=? Cp=? Rp=?
SYMBOL dual_epbuf 512 -1808 R0
WINDOW 3 -5 -211 Center 2
SYMATTR InstName U9
SYMBOL dual_epbuf 512 -1632 R180
SYMATTR InstName U10
SYMBOL twax_cable 896 -1856 R180
WINDOW 39 0 115 Center 2
SYMATTR InstName U11
SYMATTR Value Rs={Rp111} Ls=? RsG=? LsG=? Mlg=? Cp=? Rp=?
SYMBOL twax_cable 896 -1584 R0
SYMATTR InstName U12
SYMATTR Value Rs={Rp111} Ls=? RsG=? LsG=? Mlg=? Cp=? Rp=?
SYMBOL digitizer_3458 1360 -1808 R0
SYMATTR InstName ADC3
SYMATTR Value Ci={C3in} Ri={R3in}
SYMATTR Value2 Clg={C3sh} Rlg={R3sh}
SYMATTR SpiceLine Cgs={C3gnd} Rgs={R3gnd}
SYMBOL digitizer_3458 1360 -1632 M180
SYMATTR InstName ADC2
SYMATTR Value Ci={C2in} Ri={R2in}
SYMATTR Value2 Clg={C2sh} Rlg={R2sh}
SYMATTR SpiceLine Cgs={C2gnd} Rgs={R2gnd}
SYMBOL digitizer_3458 1360 -1088 R0
SYMATTR InstName ADC1
SYMATTR Value Ci={C1in} Ri={R1in}
SYMATTR Value2 Clg={C1sh} Rlg={R1sh}
SYMATTR SpiceLine Cgs={C1gnd} Rgs={R1gnd}
SYMBOL ground_lug 512 -896 R0
SYMATTR InstName U13
SYMATTR Value Rs={Rgrd2}
SYMATTR Value2 Ls={Lgrd2}
TEXT -128 -2384 Left 2 ;<twax>\n  Rs={Rs%} Ls={Ls%} RsG={RsG%} LsG={LsG%} Mlg={Mlg%} Cp={Cp%} Rp={Rp%}\n  RsS={RsS%} LsS={LsS%} Mls={Mls%} Mgs={Mgs%} CpS={CpS%} RpS={RpS%}\n  Mll={Mll%} Mgg={Mgg%} Mlg2={Mlg2%} CpGG={CpGG%} RpGG={RpGG%}\n</twax>
